$ INP2DAT Version 1.5 (1/1/2026) by Classical FEA and Dr. Brian Esp - Copyright 2026
$ https://github.com/ClassicalFEA/
$ Convert Abaqus/CalculiX INP file (nodes and elements) to a Nastran/MYSTRAN DAT/BDF deck
$ 
$ INP2DAT on:  1/ 3/2026 at 16:37:38.726
$ The input file was: "Z_mecway_tet4.inp". The output file was: "Z_mecway_tet4.dat"
$
BEGIN BULK
$
$The following material is a dummy material and should be changed accordingly.
$--1---><--2---><--3---><--4---><--5---><--6---><--7---><--8---><--9---><--10-->
MAT1          99   1.0+7             0.3
$
$The property cards are for the 4-node tet (ID=3104) and 10-node test (ID=3110). 
$These were not part of the original INP file.
$--1---><--2---><--3---><--4---><--5---><--6---><--7---><--8---><--9---><--10-->
PSOLID      3104      99       0
PSOLID      3110      99       0
$
$
GRID,        1, , -5.080000E-02,  7.620000E-02, -2.540000E-02,,
GRID,        2, ,  0.000000E+00,  7.620000E-02, -2.540000E-02,,
GRID,        3, ,  0.000000E+00,  0.000000E+00, -2.540000E-02,,
GRID,        4, , -5.080000E-02,  0.000000E+00, -2.540000E-02,,
GRID,        5, ,  0.000000E+00,  7.620000E-02,  0.000000E+00,,
GRID,        6, ,  0.000000E+00,  0.000000E+00,  0.000000E+00,,
GRID,        7, , -5.080000E-02,  7.620000E-02,  0.000000E+00,,
GRID,        8, , -5.080000E-02,  0.000000E+00,  0.000000E+00,,
GRID,        9, , -3.525520E-02,  7.620000E-02, -2.540000E-02,,
GRID,       10, , -1.437640E-02,  7.620000E-02, -2.540000E-02,,
GRID,       11, ,  0.000000E+00,  1.706880E-02, -2.540000E-02,,
GRID,       12, ,  0.000000E+00,  3.863340E-02, -2.540000E-02,,
GRID,       13, ,  0.000000E+00,  6.019800E-02, -2.540000E-02,,
GRID,       14, , -1.615440E-02,  0.000000E+00, -2.540000E-02,,
GRID,       15, , -3.698240E-02,  0.000000E+00, -2.540000E-02,,
GRID,       16, , -5.080000E-02,  1.577340E-02, -2.540000E-02,,
GRID,       17, , -5.080000E-02,  3.703320E-02, -2.540000E-02,,
GRID,       18, , -5.080000E-02,  5.897880E-02, -2.540000E-02,,
GRID,       19, ,  0.000000E+00,  7.620000E-02, -1.381760E-02,,
GRID,       20, ,  0.000000E+00,  1.508760E-02,  0.000000E+00,,
$ ... 20 like lines cut
$
CTETRA         1    3104      20      39      40      11
CTETRA         2    3104      22      21      35      34
CTETRA         3    3104      38      35      24      25
CTETRA         4    3104      31       9      18       1
CTETRA         5    3104      29      37      26      39
CTETRA         6    3104      34      35      17      40
CTETRA         7    3104      36      26      27      40
CTETRA         8    3104      15      39      30      14
CTETRA         9    3104      33      40      34      17
CTETRA        10    3104      28      25      38      31
CTETRA        11    3104      33      12      40      11
CTETRA        12    3104      34      21      35      40
CTETRA        13    3104      22      35      38      34
CTETRA        14    3104      22      35      24      38
CTETRA        15    3104      19      38      13      22
CTETRA        16    3104      33      40      39      11
CTETRA        17    3104      40      35      17      27
CTETRA        18    3104      28      38      18      31
CTETRA        19    3104      36      27      35      40
CTETRA        20    3104      17      26      16      40
$ ... 55 like lines cut
$
ENDDATA
