$ INP2DAT Version 1.5 (1/1/2026) by Classical FEA and Dr. Brian Esp - Copyright 2026
$ https://github.com/ClassicalFEA/
$ Convert Abaqus/CalculiX INP file (nodes and elements) to a Nastran/MYSTRAN DAT/BDF deck
$ 
$ INP2DAT on:  1/ 3/2026 at 16:38:12.446
$ The input file was: "Z_mecway_tet10.inp". The output file was: "Z_mecway_tet10.dat"
$
BEGIN BULK
$
$The following material is a dummy material and should be changed accordingly.
$--1---><--2---><--3---><--4---><--5---><--6---><--7---><--8---><--9---><--10-->
MAT1          99   1.0+7             0.3
$
$The property cards are for the 4-node tet (ID=3104) and 10-node test (ID=3110). 
$These were not part of the original INP file.
$--1---><--2---><--3---><--4---><--5---><--6---><--7---><--8---><--9---><--10-->
PSOLID      3104      99       0
PSOLID      3110      99       0
$
$
GRID,        1, , -5.080000E-02,  7.620000E-02, -2.540000E-02,,
GRID,        2, ,  0.000000E+00,  7.620000E-02, -2.540000E-02,,
GRID,        3, ,  0.000000E+00,  0.000000E+00, -2.540000E-02,,
GRID,        4, , -5.080000E-02,  0.000000E+00, -2.540000E-02,,
GRID,        5, ,  0.000000E+00,  7.620000E-02,  0.000000E+00,,
GRID,        6, ,  0.000000E+00,  0.000000E+00,  0.000000E+00,,
GRID,        7, , -5.080000E-02,  7.620000E-02,  0.000000E+00,,
GRID,        8, , -5.080000E-02,  0.000000E+00,  0.000000E+00,,
GRID,        9, , -3.525520E-02,  7.620000E-02, -2.540000E-02,,
GRID,       10, , -1.437640E-02,  7.620000E-02, -2.540000E-02,,
GRID,       11, ,  0.000000E+00,  1.706880E-02, -2.540000E-02,,
GRID,       12, ,  0.000000E+00,  3.863340E-02, -2.540000E-02,,
GRID,       13, ,  0.000000E+00,  6.019800E-02, -2.540000E-02,,
GRID,       14, , -1.615440E-02,  0.000000E+00, -2.540000E-02,,
GRID,       15, , -3.698240E-02,  0.000000E+00, -2.540000E-02,,
GRID,       16, , -5.080000E-02,  1.577340E-02, -2.540000E-02,,
GRID,       17, , -5.080000E-02,  3.703320E-02, -2.540000E-02,,
GRID,       18, , -5.080000E-02,  5.897880E-02, -2.540000E-02,,
GRID,       19, ,  0.000000E+00,  7.620000E-02, -1.381760E-02,,
GRID,       20, ,  0.000000E+00,  1.508760E-02,  0.000000E+00,,
$ ... 169 like lines cut
$
CTETRA         1    3110      39      40      20      11     146     147+
+            149     150     148      97
CTETRA         2    3110      21      35      22      34     118     119+
+             59     152     151     153
CTETRA         3    3110      35      24      38      25     105     154+
+            155     104      64     156
CTETRA         4    3110       9      18      31       1      77     121+
+            129      41      54      74
CTETRA         5    3110      37      26      29      39     157     107+
+            140     159     158     160
CTETRA         6    3110      35      17      34      40     161      89+
+            151     163     162     164
CTETRA         7    3110      26      27      36      40      67     109+
+            108     166     165     167
CTETRA         8    3110      39      30      15      14     168     143+
+            169     170     142      49
CTETRA         9    3110      40      34      33      17     164      84+
+            171     162      89      86
CTETRA        10    3110      25      38      28      31     156     172+
+            106     133     173     120
CTETRA        11    3110      12      40      33      11     174     171+
+             81      45     148      80
CTETRA        12    3110      21      35      34      40     118     151+
+            152     175     163     164
CTETRA        13    3110      35      38      22      34     155     176+
+            119     151     177     153
CTETRA        14    3110      35      24      22      38     105     103+
+            119     155     154     176
CTETRA        15    3110      38      13      19      22     178      94+
+            179     176     102      95
CTETRA        16    3110      40      39      33      11     146     180+
+            171     148     150      80
CTETRA        17    3110      35      17      40      27     161     162+
+            163     114     125     165
CTETRA        18    3110      38      18      28      31     181     128+
+            172     173     121     120
CTETRA        19    3110      27      35      36      40     114     116+
+            109     165     163     167
CTETRA        20    3110      26      16      17      40     123      52+
+            124     166     182     162
$ ... 110 like lines cut
$
ENDDATA
